Circuit: * Z:\Google Drive\11_semestre\Lab_electronica\Proyecto\Fuente_LabElectronica\Fuente_v4.asc

Direct Newton iteration failed to find .op point.  (Use ".option noopiter" to skip.)
Starting Gmin stepping
Gmin = 10
Gmin = 1.07374
Gmin = 0.115292
Gmin = 0.0123794
Gmin = 0.00132923
Gmin = 0.000142725
Gmin = 1.5325e-005
Gmin = 1.6455e-006
Gmin = 1.76685e-007
Gmin = 1.89714e-008
Gmin = 2.03704e-009
Gmin = 2.18725e-010
Gmin = 2.34854e-011
Gmin = 2.52173e-012
Gmin = 2.70769e-013
Gmin = 0
Gmin stepping succeeded in finding the operating point.


Date: Thu Jul 09 18:24:08 2020
Total elapsed time: 0.844 seconds.

tnom = 27
temp = 27
method = modified trap
totiter = 16424
traniter = 15958
tranpoints = 5793
accept = 4229
rejected = 1564
matrix size = 182
fillins = 276
solver = Normal
Thread vector: 20.5/11.8[4] 11.0/7.0[4] 4.6/2.8[4] 1.5/5.7[1]  2592/500
Matrix Compiler1: 44.13 KB object code size  8.5/3.8/[2.6]
Matrix Compiler2: 24.48 KB object code size  4.9/6.5/[2.6]

