Circuit: * C:\Users\lakat\Downloads\Fuente_v2.asc

WARNING: Less than two connections to node V+.  This node is used by R13.
Direct Newton iteration for .op point succeeded.

Date: Wed Jul 08 17:24:57 2020
Total elapsed time: 4.168 seconds.

tnom = 27
temp = 27
method = modified trap
totiter = 129522
traniter = 129477
tranpoints = 51704
accept = 35423
rejected = 16281
matrix size = 207
fillins = 280
solver = Normal
Thread vector: 14.8/8.0[6] 7.9/3.5[6] 4.2/2.4[6] 1.1/1.9[1]  2592/500
Matrix Compiler1: 45.55 KB object code size  6.8/3.8/[2.0]
Matrix Compiler2: 26.46 KB object code size  2.1/2.7/[1.4]

