Circuit: * Z:\Google Drive\11_semestre\Lab_electronica\Proyecto\Fuente_LabElectronica\Fuente_v1.asc

WARNING: Less than two connections to node V+.  This node is used by R13.
Direct Newton iteration for .op point succeeded.

Date: Wed Jul 08 14:05:21 2020
Total elapsed time: 5.393 seconds.

tnom = 27
temp = 27
method = modified trap
totiter = 104749
traniter = 104701
tranpoints = 36892
accept = 25698
rejected = 11194
matrix size = 202
fillins = 264
solver = Normal
Thread vector: 21.6/17.1[4] 11.1/8.0[4] 4.8/3.8[4] 1.4/2.4[1]  2592/500
Matrix Compiler1: 43.65 KB object code size  11.8/4.1/[2.4]
Matrix Compiler2: 25.74 KB object code size  2.4/3.8/[1.8]

