Circuit: * Z:\Google Drive\11_semestre\Lab_electronica\Proyecto\Fuente_LabElectronica\Fuente_v5.asc

Direct Newton iteration failed to find .op point.  (Use ".option noopiter" to skip.)
Starting Gmin stepping
Gmin = 10
Gmin = 1.07374
Gmin = 0.115292
Gmin = 0.0123794
Gmin = 0.00132923
Gmin = 0.000142725
Gmin = 1.5325e-005
Gmin = 1.6455e-006
Gmin = 1.76685e-007
Gmin = 1.89714e-008
Gmin = 2.03704e-009
Gmin = 2.18725e-010
Gmin = 2.34854e-011
Gmin = 2.52173e-012
Gmin = 2.70769e-013
Gmin = 0
Gmin stepping succeeded in finding the operating point.


Date: Thu Jul 09 23:16:05 2020
Total elapsed time: 1.329 seconds.

tnom = 27
temp = 27
method = modified trap
totiter = 23850
traniter = 23432
tranpoints = 8200
accept = 5657
rejected = 2543
matrix size = 202
fillins = 276
solver = Normal
Thread vector: 32.4/20.1[4] 12.0/7.8[4] 7.8/4.1[4] 1.5/3.6[1]  2592/500
Matrix Compiler1: 47.15 KB object code size  13.1/7.0/[2.0]
Matrix Compiler2: 26.70 KB object code size  4.1/4.4/[2.1]

