Circuit: * C:\Users\lakat\Downloads\Fuente_v2.asc

WARNING: Less than two connections to node BASE.  This node is used by V2.
WARNING: Less than two connections to node BASE2.  This node is used by V3.
Direct Newton iteration for .op point succeeded.

Date: Wed Jul 08 19:41:08 2020
Total elapsed time: 2.058 seconds.

tnom = 27
temp = 27
method = modified trap
totiter = 78559
traniter = 78509
tranpoints = 29479
accept = 20620
rejected = 8859
matrix size = 182
fillins = 264
solver = Normal
Thread vector: 15.2/6.6[6] 7.1/3.7[6] 4.2/2.2[6] 1.1/1.8[1]  2592/500
Matrix Compiler1: 43.56 KB object code size  6.5/3.4/[1.8]
Matrix Compiler2: 24.07 KB object code size  2.0/2.6/[1.6]

