Circuit: * Z:\Google Drive\11_semestre\Lab_electronica\Proyecto\Fuente_LabElectronica\Fuente_v3.asc

WARNING: Less than two connections to node BASE.  This node is used by V2.
WARNING: Less than two connections to node BASE2.  This node is used by V3.
Direct Newton iteration for .op point succeeded.

Date: Wed Jul 08 18:00:07 2020
Total elapsed time: 2.882 seconds.

tnom = 27
temp = 27
method = modified trap
totiter = 65456
traniter = 65409
tranpoints = 24758
accept = 17481
rejected = 7277
matrix size = 189
fillins = 296
solver = Normal
Thread vector: 25.8/13.2[4] 9.2/4.6[4] 3.5/2.5[4] 1.3/1.9[1]  2592/500
Matrix Compiler1: 46.17 KB object code size  7.8/3.9/[3.0]
Matrix Compiler2: 25.11 KB object code size  2.8/4.0/[1.6]

