Circuit: * Z:\Google Drive\11_semestre\Lab_electronica\Proyecto\Fuente_LabElectronica\Fuente_v4.asc

Direct Newton iteration for .op point succeeded.

Date: Thu Jul 09 19:29:01 2020
Total elapsed time: 1.062 seconds.

tnom = 27
temp = 27
method = modified trap
totiter = 15366
traniter = 15324
tranpoints = 4988
accept = 3567
rejected = 1421
matrix size = 182
fillins = 284
solver = Normal
Thread vector: 25.0/19.2[4] 14.9/7.7[4] 6.7/4.9[4] 2.1/4.0[1]  2592/500
Matrix Compiler1: 44.83 KB object code size  9.2/7.8/[2.9]
Matrix Compiler2: off  [3.2]/5.3/3.9

