Circuit: * C:\Users\lakat\Documents\GitHub\Fuente_LabElectronica\Fuente_v1.asc

WARNING: Less than two connections to node V+.  This node is used by R13.
Direct Newton iteration for .op point succeeded.

Date: Tue Jul 07 21:16:32 2020
Total elapsed time: 5.462 seconds.

tnom = 27
temp = 27
method = modified trap
totiter = 187498
traniter = 187453
tranpoints = 70763
accept = 48762
rejected = 22001
matrix size = 199
fillins = 252
solver = Normal
Thread vector: 13.9/7.8[6] 7.2/3.5[6] 4.3/2.5[6] 1.1/2.0[1]  2592/500
Matrix Compiler1: 43.12 KB object code size  6.9/3.3/[1.8]
Matrix Compiler2: 25.40 KB object code size  2.1/2.7/[1.4]

