Circuit: * C:\Users\lakat\Downloads\Fuente_v2.asc

WARNING: Less than two connections to node BASE.  This node is used by V2.
WARNING: Less than two connections to node BASE2.  This node is used by V3.
Direct Newton iteration failed to find .op point.  (Use ".option noopiter" to skip.)
Starting Gmin stepping
Gmin = 10
Gmin = 1.07374
Gmin = 0.115292
Gmin = 0.0123794
Gmin = 0.00132923
Gmin = 0.000142725
Gmin = 1.5325e-005
Gmin = 1.6455e-006
Gmin = 1.76685e-007
Gmin = 1.89714e-008
Gmin = 2.03704e-009
Gmin = 2.18725e-010
Gmin = 2.34854e-011
Gmin = 2.52173e-012
Gmin = 2.70769e-013
Gmin = 0
Gmin stepping succeeded in finding the operating point.


Date: Wed Jul 08 18:06:59 2020
Total elapsed time: 2.035 seconds.

tnom = 27
temp = 27
method = modified trap
totiter = 70971
traniter = 70476
tranpoints = 26491
accept = 18687
rejected = 7804
matrix size = 189
fillins = 266
solver = Normal
Thread vector: 15.6/7.1[6] 22.6/5.4[6] 7.6/3.9[6] 1.3/2.5[1]  2592/500
Matrix Compiler1: 43.88 KB object code size  16.1/9.2/[4.1]
Matrix Compiler2: 24.63 KB object code size  7.0/4.9/[2.2]

