Circuit: * C:\Users\lakat\Downloads\Fuente_v2.asc

WARNING: Less than two connections to node BASE.  This node is used by V2.
WARNING: Less than two connections to node BASE2.  This node is used by V3.
Direct Newton iteration for .op point succeeded.

Date: Wed Jul 08 18:13:47 2020
Total elapsed time: 2.031 seconds.

tnom = 27
temp = 27
method = modified trap
totiter = 78360
traniter = 78310
tranpoints = 29429
accept = 20592
rejected = 8837
matrix size = 182
fillins = 264
solver = Normal
Thread vector: 14.0/6.8[6] 13.9/5.5[6] 6.6/3.3[6] 1.1/1.8[1]  2592/500
Matrix Compiler1: 43.56 KB object code size  16.6/8.9/[1.8]
Matrix Compiler2: 24.07 KB object code size  3.1/2.5/[2.1]

