Circuit: * C:\Users\lakat\Downloads\Fuente_v2.asc

WARNING: Less than two connections to node BASE.  This node is used by V2.
WARNING: Less than two connections to node BASE2.  This node is used by V3.
Direct Newton iteration for .op point succeeded.

Date: Wed Jul 08 17:52:19 2020
Total elapsed time: 1.843 seconds.

tnom = 27
temp = 27
method = modified trap
totiter = 64085
traniter = 64041
tranpoints = 24220
accept = 17101
rejected = 7119
matrix size = 189
fillins = 296
solver = Normal
Thread vector: 12.9/8.8[6] 8.8/4.7[6] 5.0/2.5[6] 1.0/2.8[1]  2592/500
Matrix Compiler1: 46.17 KB object code size  7.5/4.6/[3.1]
Matrix Compiler2: 25.11 KB object code size  2.7/2.9/[1.5]

