Circuit: * C:\Users\lakat\Downloads\Fuente_v2.asc

WARNING: Less than two connections to node V+.  This node is used by R13.
Direct Newton iteration failed to find .op point.  (Use ".option noopiter" to skip.)
Starting Gmin stepping
Gmin = 10
Gmin = 1.07374
Gmin = 0.115292
Gmin = 0.0123794
Gmin = 0.00132923
Gmin = 0.000142725
Gmin = 1.5325e-005
Gmin = 1.6455e-006
Gmin = 1.76685e-007
Gmin = 1.89714e-008
Gmin = 2.03704e-009
Gmin = 2.18725e-010
Gmin = 2.34854e-011
Gmin = 2.52173e-012
Gmin = 2.70769e-013
Gmin = 0
Gmin stepping succeeded in finding the operating point.


Date: Wed Jul 08 17:32:29 2020
Total elapsed time: 4.149 seconds.

tnom = 27
temp = 27
method = modified trap
totiter = 131016
traniter = 130337
tranpoints = 52088
accept = 35396
rejected = 16692
matrix size = 207
fillins = 264
solver = Normal
Thread vector: 19.2/7.7[6] 7.5/4.1[6] 5.1/3.7[6] 1.5/2.5[1]  2592/500
Matrix Compiler1: 44.11 KB object code size  6.6/3.3/[1.7]
Matrix Compiler2: 26.19 KB object code size  3.1/3.6/[1.8]

