Circuit: * C:\Users\lakat\Downloads\Fuente_v2.asc

WARNING: Less than two connections to node BASE.  This node is used by V2.
WARNING: Less than two connections to node BASE2.  This node is used by V3.
Direct Newton iteration failed to find .op point.  (Use ".option noopiter" to skip.)
Starting Gmin stepping
Gmin = 10
Gmin = 1.07374
Gmin = 0.115292
Gmin = 0.0123794
Gmin = 0.00132923
Gmin = 0.000142725
Gmin = 1.5325e-005
Gmin = 1.6455e-006
Gmin = 1.76685e-007
Gmin = 1.89714e-008
Gmin = 2.03704e-009
Gmin = 2.18725e-010
Gmin = 2.34854e-011
Gmin = 2.52173e-012
Gmin = 2.70769e-013
Gmin = 0
Gmin stepping succeeded in finding the operating point.


Date: Wed Jul 08 18:10:50 2020
Total elapsed time: 2.502 seconds.

tnom = 27
temp = 27
method = modified trap
totiter = 79672
traniter = 79178
tranpoints = 29817
accept = 20797
rejected = 9020
matrix size = 182
fillins = 252
solver = Normal
Thread vector: 16.4/8.1[6] 9.0/3.4[6] 8.6/3.7[6] 3.4/2.0[6]  2592/500
Matrix Compiler1: 42.56 KB object code size  6.3/3.5/[2.3]
Matrix Compiler2: 23.88 KB object code size  7.6/7.0/[2.7]

