Circuit: * Z:\Google Drive\11_semestre\Lab_electronica\Proyecto\Fuente_LabElectronica\Fuente_v1.asc

WARNING: Less than two connections to node V+.  This node is used by R13.
Direct Newton iteration failed to find .op point.  (Use ".option noopiter" to skip.)
Starting Gmin stepping
Gmin = 10
Gmin = 1.07374
Gmin = 0.115292
Gmin = 0.0123794
Gmin = 0.00132923
Gmin = 0.000142725
Gmin = 1.5325e-005
Gmin = 1.6455e-006
Gmin = 1.76685e-007
Gmin = 1.89714e-008
Gmin = 2.03704e-009
Gmin = 2.18725e-010
Gmin = 2.34854e-011
Gmin = 2.52173e-012
Gmin = 2.70769e-013
Gmin = 0
Gmin stepping succeeded in finding the operating point.


Date: Tue Jul 07 20:45:49 2020
Total elapsed time: 5.098 seconds.

tnom = 27
temp = 27
method = modified trap
totiter = 85162
traniter = 84551
tranpoints = 31632
accept = 22192
rejected = 9440
matrix size = 202
fillins = 269
solver = Normal
Thread vector: 18.2/12.9[4] 8.6/5.2[4] 7.9/2.7[4] 1.4/6.2[1]  2592/500
Matrix Compiler1: 43.98 KB object code size  8.3/5.0/[2.4]
Matrix Compiler2: 25.83 KB object code size  3.6/4.5/[2.0]

